RTS-Data/RTS.iidm
<?xml version="1.0" encoding="UTF-8"?>
<iidm:network xmlns:iidm="http://www.powsybl.org/schema/iidm/1_4" id="Default" caseDate="2023-07-06T11:03:14.502+02:00" forecastDistance="0" sourceFormat="RTS-GMLC">
    <iidm:substation id="S-101">
        <iidm:voltageLevel id="V-101" nominalV="138.0" topologyKind="BUS_BREAKER">
            <iidm:busBreakerTopology>
                <iidm:bus id="B-101" v="144.45839999999998" angle="-19.00878011070843"/>
            </iidm:busBreakerTopology>
            <iidm:generator id="101_CT_1" energySource="THERMAL" minP="8.0" maxP="20.0" ratedS="22.360679774997898" voltageRegulatorOn="true" targetP="8.0" targetV="144.45839999999998" targetQ="4.96" bus="B-101" connectableBus="B-101" p="-8.238832537228372" q="-1.7490052046417874">
                <iidm:minMaxReactiveLimits minQ="0.0" maxQ="10.0"/>
            </iidm:generator>
            <iidm:generator id="101_CT_2" energySource="THERMAL" minP="8.0" maxP="20.0" ratedS="22.360679774997898" voltageRegulatorOn="true" targetP="8.0" targetV="144.45839999999998" targetQ="4.96" bus="B-101" connectableBus="B-101" p="-8.238832537228372" q="-1.7490052046417874">
                <iidm:minMaxReactiveLimits minQ="0.0" maxQ="10.0"/>
            </iidm:generator>
            <iidm:generator id="101_STEAM_3" energySource="THERMAL" minP="30.0" maxP="76.0" ratedS="81.70679286326198" voltageRegulatorOn="true" targetP="76.0" targetV="144.45839999999998" targetQ="0.14" bus="B-101" connectableBus="B-101" p="-75.87455721765272" q="-1.7490052046417874">
                <iidm:minMaxReactiveLimits minQ="-25.0" maxQ="30.0"/>
            </iidm:generator>
            <iidm:generator id="101_STEAM_4" energySource="THERMAL" minP="30.0" maxP="76.0" ratedS="81.70679286326198" voltageRegulatorOn="true" targetP="76.0" targetV="144.45839999999998" targetQ="0.14" bus="B-101" connectableBus="B-101" p="-75.87455721765272" q="-1.7490052046417874">
                <iidm:minMaxReactiveLimits minQ="-25.0" maxQ="30.0"/>
            </iidm:generator>
            <iidm:generator id="101_PV_1" energySource="SOLAR" minP="0.0" maxP="25.9" ratedS="25.9" voltageRegulatorOn="true" targetP="0.0" targetV="138.0" targetQ="0.0" bus="B-101" connectableBus="B-101" p="-0.0" q="-0.0">
                <iidm:minMaxReactiveLimits minQ="0.0" maxQ="0.0"/>
            </iidm:generator>
            <iidm:generator id="101_PV_2" energySource="SOLAR" minP="0.0" maxP="26.7" ratedS="26.7" voltageRegulatorOn="true" targetP="0.0" targetV="138.0" targetQ="0.0" bus="B-101" connectableBus="B-101" p="-0.0" q="-0.0">
                <iidm:minMaxReactiveLimits minQ="0.0" maxQ="0.0"/>
            </iidm:generator>
            <iidm:generator id="101_PV_3" energySource="SOLAR" minP="0.0" maxP="26.2" ratedS="26.2" voltageRegulatorOn="true" targetP="0.0" targetV="138.0" targetQ="0.0" bus="B-101" connectableBus="B-101" p="-0.0" q="-0.0">
                <iidm:minMaxReactiveLimits minQ="0.0" maxQ="0.0"/>
            </iidm:generator>
            <iidm:generator id="101_PV_4" energySource="SOLAR" minP="0.0" maxP="25.8" ratedS="25.8" voltageRegulatorOn="true" targetP="0.0" targetV="138.0" targetQ="0.0" bus="B-101" connectableBus="B-101" p="-0.0" q="-0.0">
                <iidm:minMaxReactiveLimits minQ="0.0" maxQ="0.0"/>
            </iidm:generator>
            <iidm:load id="L-101" loadType="UNDEFINED" p0="108.0" q0="22.0" bus="B-101" connectableBus="B-101" p="108.0" q="22.0"/>
        </iidm:voltageLevel>
    </iidm:substation>
    <iidm:substation id="S-102">
        <iidm:voltageLevel id="V-102" nominalV="138.0" topologyKind="BUS_BREAKER">
            <iidm:busBreakerTopology>
                <iidm:bus id="B-102" v="144.4446" angle="-19.066429091779064"/>
            </iidm:busBreakerTopology>
            <iidm:generator id="102_CT_1" energySource="THERMAL" minP="8.0" maxP="20.0" ratedS="22.360679774997898" voltageRegulatorOn="true" targetP="8.0" targetV="144.4446" targetQ="4.88" bus="B-102" connectableBus="B-102" p="-8.238832537228372" q="-0.0">
                <iidm:minMaxReactiveLimits minQ="0.0" maxQ="10.0"/>
            </iidm:generator>
            <iidm:generator id="102_CT_2" energySource="THERMAL" minP="8.0" maxP="20.0" ratedS="22.360679774997898" voltageRegulatorOn="true" targetP="8.0" targetV="144.4446" targetQ="4.88" bus="B-102" connectableBus="B-102" p="-8.238832537228372" q="-0.0">
                <iidm:minMaxReactiveLimits minQ="0.0" maxQ="10.0"/>
            </iidm:generator>
            <iidm:generator id="102_STEAM_3" energySource="THERMAL" minP="30.0" maxP="76.0" ratedS="81.70679286326198" voltageRegulatorOn="true" targetP="76.0" targetV="144.4446" targetQ="-2.31" bus="B-102" connectableBus="B-102" p="-75.87455721765272" q="6.74769398622815">
                <iidm:minMaxReactiveLimits minQ="-25.0" maxQ="30.0"/>
            </iidm:generator>
            <iidm:generator id="102_STEAM_4" energySource="THERMAL" minP="30.0" maxP="76.0" ratedS="81.70679286326198" voltageRegulatorOn="true" targetP="76.0" targetV="144.4446" targetQ="-2.31" bus="B-102" connectableBus="B-102" p="-75.87455721765272" q="6.74769398622815">
                <iidm:minMaxReactiveLimits minQ="-25.0" maxQ="30.0"/>
            </iidm:generator>
            <iidm:generator id="102_PV_1" energySource="SOLAR" minP="0.0" maxP="25.6" ratedS="25.6" voltageRegulatorOn="true" targetP="0.0" targetV="138.0" targetQ="0.0" bus="B-102" connectableBus="B-102" p="-0.0" q="-0.0">
                <iidm:minMaxReactiveLimits minQ="0.0" maxQ="0.0"/>
            </iidm:generator>
            <iidm:generator id="102_PV_2" energySource="SOLAR" minP="0.0" maxP="25.3" ratedS="25.3" voltageRegulatorOn="true" targetP="0.0" targetV="138.0" targetQ="0.0" bus="B-102" connectableBus="B-102" p="-0.0" q="-0.0">
                <iidm:minMaxReactiveLimits minQ="0.0" maxQ="0.0"/>
            </iidm:generator>
            <iidm:load id="L-102" loadType="UNDEFINED" p0="97.0" q0="20.0" bus="B-102" connectableBus="B-102" p="97.0" q="20.0"/>
        </iidm:voltageLevel>
    </iidm:substation>
    <iidm:substation id="S-103">
        <iidm:voltageLevel id="V-103" nominalV="138.0" topologyKind="BUS_BREAKER">
            <iidm:busBreakerTopology>
                <iidm:bus id="B-103" v="139.96744717425202" angle="-18.478334371549074"/>
            </iidm:busBreakerTopology>
            <iidm:generator id="103_PV_1" energySource="SOLAR" minP="0.0" maxP="61.5" ratedS="61.5" voltageRegulatorOn="true" targetP="0.0" targetV="138.0" targetQ="0.0" bus="B-103" connectableBus="B-103" p="-0.0" q="-0.0">
                <iidm:minMaxReactiveLimits minQ="0.0" maxQ="0.0"/>
            </iidm:generator>
            <iidm:load id="L-103" loadType="UNDEFINED" p0="180.0" q0="37.0" bus="B-103" connectableBus="B-103" p="180.0" q="37.0"/>
        </iidm:voltageLevel>
        <iidm:voltageLevel id="V-124" nominalV="230.0" topologyKind="BUS_BREAKER">
            <iidm:busBreakerTopology>
                <iidm:bus id="B-124" v="233.3141816072699" angle="-9.706717502977423"/>
            </iidm:busBreakerTopology>
            <iidm:load id="L-124" loadType="UNDEFINED" p0="0.0" q0="0.0" bus="B-124" connectableBus="B-124" p="0.0" q="0.0"/>
        </iidm:voltageLevel>
        <iidm:twoWindingsTransformer id="A7" r="1.058" x="44.436" g="0.0" b="0.0" ratedU1="138.0" ratedU2="230.0" bus1="B-103" connectableBus1="B-103" voltageLevelId1="V-103" bus2="B-124" connectableBus2="B-124" voltageLevelId2="V-124" p1="-184.01279545433061" q1="0.4827409946268604" p2="184.691007040167" q2="28.002145610502538">
            <iidm:ratioTapChanger lowTapPosition="0" tapPosition="0" targetDeadband="2.0" loadTapChangingCapabilities="false" targetV="230.0">
                <iidm:step r="0.0" x="0.0" g="0.0" b="0.0" rho="0.9852216748768474"/>
            </iidm:ratioTapChanger>
        </iidm:twoWindingsTransformer>
    </iidm:substation>
    <iidm:substation id="S-104">
        <iidm:voltageLevel id="V-104" nominalV="138.0" topologyKind="BUS_BREAKER">
            <iidm:busBreakerTopology>
                <iidm:bus id="B-104" v="140.932736278966" angle="-21.21701223702804"/>
            </iidm:busBreakerTopology>
            <iidm:generator id="104_PV_1" energySource="SOLAR" minP="0.0" maxP="26.8" ratedS="26.8" voltageRegulatorOn="true" targetP="0.0" targetV="138.0" targetQ="0.0" bus="B-104" connectableBus="B-104" p="-0.0" q="-0.0">
                <iidm:minMaxReactiveLimits minQ="0.0" maxQ="0.0"/>
            </iidm:generator>
            <iidm:load id="L-104" loadType="UNDEFINED" p0="74.0" q0="15.0" bus="B-104" connectableBus="B-104" p="74.0" q="15.0"/>
        </iidm:voltageLevel>
    </iidm:substation>
    <iidm:substation id="S-105">
        <iidm:voltageLevel id="V-105" nominalV="138.0" topologyKind="BUS_BREAKER">
            <iidm:busBreakerTopology>
                <iidm:bus id="B-105" v="143.12968669742" angle="-21.393715500134448"/>
            </iidm:busBreakerTopology>
            <iidm:load id="L-105" loadType="UNDEFINED" p0="71.0" q0="14.0" bus="B-105" connectableBus="B-105" p="71.0" q="14.0"/>
        </iidm:voltageLevel>
    </iidm:substation>
    <iidm:substation id="S-106">
        <iidm:voltageLevel id="V-106" nominalV="138.0" topologyKind="BUS_BREAKER">
            <iidm:busBreakerTopology>
                <iidm:bus id="B-106" v="146.34513989792646" angle="-23.87722276397062"/>
            </iidm:busBreakerTopology>
            <iidm:load id="L-106" loadType="UNDEFINED" p0="136.0" q0="28.0" bus="B-106" connectableBus="B-106" p="136.0" q="28.0"/>
        </iidm:voltageLevel>
    </iidm:substation>
    <iidm:substation id="S-107">
        <iidm:voltageLevel id="V-107" nominalV="138.0" topologyKind="BUS_BREAKER">
            <iidm:busBreakerTopology>
                <iidm:bus id="B-107" v="144.9" angle="-14.589805302293447"/>
            </iidm:busBreakerTopology>
            <iidm:generator id="107_CC_1" energySource="THERMAL" minP="170.0" maxP="355.0" ratedS="385.3894134508627" voltageRegulatorOn="true" targetP="355.0" targetV="144.9" targetQ="49.51" bus="B-107" connectableBus="B-107" p="-354.4140501614041" q="7.538471543294597">
                <iidm:minMaxReactiveLimits minQ="-25.0" maxQ="150.0"/>
            </iidm:generator>
            <iidm:load id="L-107" loadType="UNDEFINED" p0="125.0" q0="25.0" bus="B-107" connectableBus="B-107" p="125.0" q="25.0"/>
        </iidm:voltageLevel>
    </iidm:substation>
    <iidm:substation id="S-108">
        <iidm:voltageLevel id="V-108" nominalV="138.0" topologyKind="BUS_BREAKER">
            <iidm:busBreakerTopology>
                <iidm:bus id="B-108" v="144.9" angle="-20.249681186640075"/>
            </iidm:busBreakerTopology>
            <iidm:generator id="108_SYNC_COND_1" energySource="OTHER" minP="0.0" maxP="0.0" ratedS="100.0" voltageRegulatorOn="true" targetP="0.0" targetV="144.9" targetQ="125.28" bus="B-108" connectableBus="B-108" p="-0.0" q="-91.25023324047234">
                <iidm:minMaxReactiveLimits minQ="-25.0" maxQ="100.0"/>
            </iidm:generator>
            <iidm:load id="L-108" loadType="UNDEFINED" p0="171.0" q0="35.0" bus="B-108" connectableBus="B-108" p="171.0" q="35.0"/>
        </iidm:voltageLevel>
    </iidm:substation>
    <iidm:substation id="S-109">
        <iidm:voltageLevel id="V-109" nominalV="138.0" topologyKind="BUS_BREAKER">
            <iidm:busBreakerTopology>
                <iidm:bus id="B-109" v="142.60209329257324" angle="-18.99414779298625"/>
            </iidm:busBreakerTopology>
            <iidm:load id="L-109" loadType="UNDEFINED" p0="175.0" q0="36.0" bus="B-109" connectableBus="B-109" p="175.0" q="36.0"/>
        </iidm:voltageLevel>
        <iidm:voltageLevel id="V-110" nominalV="138.0" topologyKind="BUS_BREAKER">
            <iidm:busBreakerTopology>
                <iidm:bus id="B-110" v="145.39443424000282" angle="-20.70889118757871"/>
            </iidm:busBreakerTopology>
            <iidm:load id="L-110" loadType="UNDEFINED" p0="195.0" q0="40.0" bus="B-110" connectableBus="B-110" p="195.0" q="40.0"/>
        </iidm:voltageLevel>
        <iidm:voltageLevel id="V-111" nominalV="230.0" topologyKind="BUS_BREAKER">
            <iidm:busBreakerTopology>
                <iidm:bus id="B-111" v="236.6287526937038" angle="-14.638505823680708"/>
            </iidm:busBreakerTopology>
            <iidm:load id="L-111" loadType="UNDEFINED" p0="0.0" q0="0.0" bus="B-111" connectableBus="B-111" p="0.0" q="0.0"/>
        </iidm:voltageLevel>
        <iidm:voltageLevel id="V-112" nominalV="230.0" topologyKind="BUS_BREAKER">
            <iidm:busBreakerTopology>
                <iidm:bus id="B-112" v="235.03001038735079" angle="-12.955642506459244"/>
            </iidm:busBreakerTopology>
            <iidm:load id="L-112" loadType="UNDEFINED" p0="0.0" q0="0.0" bus="B-112" connectableBus="B-112" p="0.0" q="0.0"/>
        </iidm:voltageLevel>
        <iidm:twoWindingsTransformer id="A14" r="1.058" x="44.436" g="0.0" b="0.0" ratedU1="138.0" ratedU2="230.0" bus1="B-109" connectableBus1="B-109" voltageLevelId1="V-109" bus2="B-111" connectableBus2="B-111" voltageLevelId2="V-111" p1="-93.9107634783674" q1="-24.75422918861609" p2="94.09818297334941" q2="32.62584797786521">
            <iidm:ratioTapChanger lowTapPosition="0" tapPosition="0" targetDeadband="2.0" loadTapChangingCapabilities="false" targetV="230.0">
                <iidm:step r="0.0" x="0.0" g="0.0" b="0.0" rho="0.970873786407767"/>
            </iidm:ratioTapChanger>
        </iidm:twoWindingsTransformer>
        <iidm:twoWindingsTransformer id="A15" r="1.058" x="44.436" g="0.0" b="0.0" ratedU1="138.0" ratedU2="230.0" bus1="B-109" connectableBus1="B-109" voltageLevelId1="V-109" bus2="B-112" connectableBus2="B-112" voltageLevelId2="V-112" p1="-128.68442036947843" q1="-12.401336674704295" p2="129.0165269842145" q2="26.349814493619995">
            <iidm:ratioTapChanger lowTapPosition="0" tapPosition="0" targetDeadband="2.0" loadTapChangingCapabilities="false" targetV="230.0">
                <iidm:step r="0.0" x="0.0" g="0.0" b="0.0" rho="0.970873786407767"/>
            </iidm:ratioTapChanger>
        </iidm:twoWindingsTransformer>
        <iidm:twoWindingsTransformer id="A16" r="1.058" x="44.436" g="0.0" b="0.0" ratedU1="138.0" ratedU2="230.0" bus1="B-110" connectableBus1="B-110" voltageLevelId1="V-110" bus2="B-111" connectableBus2="B-111" voltageLevelId2="V-111" p1="-133.92865499376433" q1="21.67636593699018" p2="134.27032101517017" q2="-7.326393037942614">
            <iidm:ratioTapChanger lowTapPosition="0" tapPosition="0" targetDeadband="2.0" loadTapChangingCapabilities="false" targetV="230.0">
                <iidm:step r="0.0" x="0.0" g="0.0" b="0.0" rho="0.9852216748768474"/>
            </iidm:ratioTapChanger>
        </iidm:twoWindingsTransformer>
        <iidm:twoWindingsTransformer id="A17" r="1.058" x="44.436" g="0.0" b="0.0" ratedU1="138.0" ratedU2="230.0" bus1="B-110" connectableBus1="B-110" voltageLevelId1="V-110" bus2="B-112" connectableBus2="B-112" voltageLevelId2="V-112" p1="-169.50862577471494" q1="35.528152872510645" p2="170.0654007309656" q2="-12.14360470997872">
            <iidm:ratioTapChanger lowTapPosition="0" tapPosition="0" targetDeadband="2.0" loadTapChangingCapabilities="false" targetV="230.0">
                <iidm:step r="0.0" x="0.0" g="0.0" b="0.0" rho="0.9852216748768474"/>
            </iidm:ratioTapChanger>
        </iidm:twoWindingsTransformer>
    </iidm:substation>
    <iidm:substation id="S-113">
        <iidm:voltageLevel id="V-113" nominalV="230.0" topologyKind="BUS_BREAKER">
            <iidm:busBreakerTopology>
                <iidm:bus id="B-113" v="237.981" angle="-10.549375653189774"/>
            </iidm:busBreakerTopology>
            <iidm:generator id="113_CT_1" energySource="THERMAL" minP="22.0" maxP="55.0" ratedS="58.18934610390462" voltageRegulatorOn="true" targetP="55.0" targetV="237.981" targetQ="19.0" bus="B-113" connectableBus="B-113" p="-54.909219039090786" q="-17.09726799118658">
                <iidm:minMaxReactiveLimits minQ="-15.0" maxQ="19.0"/>
            </iidm:generator>
            <iidm:generator id="113_CT_2" energySource="THERMAL" minP="22.0" maxP="55.0" ratedS="58.18934610390462" voltageRegulatorOn="true" targetP="55.0" targetV="237.981" targetQ="19.0" bus="B-113" connectableBus="B-113" p="-54.909219039090786" q="-17.09726799118658">
                <iidm:minMaxReactiveLimits minQ="-15.0" maxQ="19.0"/>
            </iidm:generator>
            <iidm:generator id="113_CT_3" energySource="THERMAL" minP="22.0" maxP="55.0" ratedS="58.18934610390462" voltageRegulatorOn="true" targetP="55.0" targetV="237.981" targetQ="19.0" bus="B-113" connectableBus="B-113" p="-54.909219039090786" q="-17.09726799118658">
                <iidm:minMaxReactiveLimits minQ="-15.0" maxQ="19.0"/>
            </iidm:generator>
            <iidm:generator id="113_CT_4" energySource="THERMAL" minP="22.0" maxP="55.0" ratedS="58.18934610390462" voltageRegulatorOn="true" targetP="55.0" targetV="237.981" targetQ="19.0" bus="B-113" connectableBus="B-113" p="-54.909219039090786" q="-17.09726799118658">
                <iidm:minMaxReactiveLimits minQ="-15.0" maxQ="19.0"/>
            </iidm:generator>
            <iidm:generator id="113_PV_1" energySource="SOLAR" minP="0.0" maxP="93.6" ratedS="93.6" voltageRegulatorOn="true" targetP="0.0" targetV="230.0" targetQ="0.0" bus="B-113" connectableBus="B-113" p="-0.0" q="-0.0">
                <iidm:minMaxReactiveLimits minQ="0.0" maxQ="0.0"/>
            </iidm:generator>
            <iidm:load id="L-113" loadType="UNDEFINED" p0="265.0" q0="54.0" bus="B-113" connectableBus="B-113" p="265.0" q="54.0"/>
        </iidm:voltageLevel>
    </iidm:substation>
    <iidm:substation id="S-114">
        <iidm:voltageLevel id="V-114" nominalV="230.0" topologyKind="BUS_BREAKER">
            <iidm:busBreakerTopology>
                <iidm:bus id="B-114" v="240.143" angle="-13.104394387079378"/>
            </iidm:busBreakerTopology>
            <iidm:generator id="114_SYNC_COND_1" energySource="OTHER" minP="0.0" maxP="0.0" ratedS="100.0" voltageRegulatorOn="true" targetP="0.0" targetV="240.143" targetQ="103.32" bus="B-114" connectableBus="B-114" p="-0.0" q="-98.76437361414004">
                <iidm:minMaxReactiveLimits minQ="-25.0" maxQ="100.0"/>
            </iidm:generator>
            <iidm:load id="L-114" loadType="UNDEFINED" p0="194.0" q0="39.0" bus="B-114" connectableBus="B-114" p="194.0" q="39.0"/>
        </iidm:voltageLevel>
    </iidm:substation>
    <iidm:substation id="S-115">
        <iidm:voltageLevel id="V-115" nominalV="230.0" topologyKind="BUS_BREAKER">
            <iidm:busBreakerTopology>
                <iidm:bus id="B-115" v="239.844" angle="-4.582945598206407"/>
            </iidm:busBreakerTopology>
            <iidm:generator id="115_STEAM_1" energySource="THERMAL" minP="5.0" maxP="12.0" ratedS="13.416407864998739" voltageRegulatorOn="true" targetP="5.0" targetV="239.844" targetQ="6.0" bus="B-115" connectableBus="B-115" p="-5.143299522337026" q="-6.0">
                <iidm:minMaxReactiveLimits minQ="0.0" maxQ="6.0"/>
            </iidm:generator>
            <iidm:generator id="115_STEAM_2" energySource="THERMAL" minP="5.0" maxP="12.0" ratedS="13.416407864998739" voltageRegulatorOn="true" targetP="5.0" targetV="239.844" targetQ="6.0" bus="B-115" connectableBus="B-115" p="-5.143299522337026" q="-6.0">
                <iidm:minMaxReactiveLimits minQ="0.0" maxQ="6.0"/>
            </iidm:generator>
            <iidm:generator id="115_STEAM_3" energySource="THERMAL" minP="62.0" maxP="155.0" ratedS="174.42763542512407" voltageRegulatorOn="true" targetP="155.0" targetV="239.844" targetQ="80.0" bus="B-115" connectableBus="B-115" p="-154.74416274652856" q="-77.80648373627817">
                <iidm:minMaxReactiveLimits minQ="-50.0" maxQ="80.0"/>
            </iidm:generator>
            <iidm:load id="L-115" loadType="UNDEFINED" p0="317.0" q0="64.0" bus="B-115" connectableBus="B-115" p="317.0" q="64.0"/>
        </iidm:voltageLevel>
    </iidm:substation>
    <iidm:substation id="S-116">
        <iidm:voltageLevel id="V-116" nominalV="230.0" topologyKind="BUS_BREAKER">
            <iidm:busBreakerTopology>
                <iidm:bus id="B-116" v="240.603" angle="-4.737964810641443"/>
            </iidm:busBreakerTopology>
            <iidm:generator id="116_STEAM_1" energySource="THERMAL" minP="62.0" maxP="155.0" ratedS="174.42763542512407" voltageRegulatorOn="true" targetP="155.0" targetV="240.603" targetQ="80.0" bus="B-116" connectableBus="B-116" p="-154.74416274652856" q="-79.81785367735566">
                <iidm:minMaxReactiveLimits minQ="-50.0" maxQ="80.0"/>
            </iidm:generator>
            <iidm:load id="L-116" loadType="UNDEFINED" p0="100.0" q0="20.0" bus="B-116" connectableBus="B-116" p="100.0" q="20.0"/>
        </iidm:voltageLevel>
    </iidm:substation>
    <iidm:substation id="S-117">
        <iidm:voltageLevel id="V-117" nominalV="230.0" topologyKind="BUS_BREAKER">
            <iidm:busBreakerTopology>
                <iidm:bus id="B-117" v="241.11790529827064" angle="-1.428078326940762"/>
            </iidm:busBreakerTopology>
            <iidm:load id="L-117" loadType="UNDEFINED" p0="0.0" q0="0.0" bus="B-117" connectableBus="B-117" p="0.0" q="0.0"/>
        </iidm:voltageLevel>
    </iidm:substation>
    <iidm:substation id="S-118">
        <iidm:voltageLevel id="V-118" nominalV="230.0" topologyKind="BUS_BREAKER">
            <iidm:busBreakerTopology>
                <iidm:bus id="B-118" v="241.5" angle="-0.6150178982394751"/>
            </iidm:busBreakerTopology>
            <iidm:generator id="118_CC_1" energySource="THERMAL" minP="170.0" maxP="355.0" ratedS="385.3894134508627" voltageRegulatorOn="true" targetP="355.0" targetV="241.5" targetQ="68.43" bus="B-118" connectableBus="B-118" p="-354.4140501614041" q="-68.49667752903176">
                <iidm:minMaxReactiveLimits minQ="-25.0" maxQ="150.0"/>
            </iidm:generator>
            <iidm:generator id="118_RTPV_1" energySource="SOLAR" minP="0.0" maxP="9.3" ratedS="9.3" voltageRegulatorOn="true" targetP="0.0" targetV="230.0" targetQ="0.0" bus="B-118" connectableBus="B-118" p="-0.0" q="-0.0">
                <iidm:minMaxReactiveLimits minQ="0.0" maxQ="0.0"/>
            </iidm:generator>
            <iidm:generator id="118_RTPV_2" energySource="SOLAR" minP="0.0" maxP="9.7" ratedS="9.7" voltageRegulatorOn="true" targetP="0.0" targetV="230.0" targetQ="0.0" bus="B-118" connectableBus="B-118" p="-0.0" q="-0.0">
                <iidm:minMaxReactiveLimits minQ="0.0" maxQ="0.0"/>
            </iidm:generator>
            <iidm:generator id="118_RTPV_3" energySource="SOLAR" minP="0.0" maxP="9.4" ratedS="9.4" voltageRegulatorOn="true" targetP="0.0" targetV="230.0" targetQ="0.0" bus="B-118" connectableBus="B-118" p="-0.0" q="-0.0">
                <iidm:minMaxReactiveLimits minQ="0.0" maxQ="0.0"/>
            </iidm:generator>
            <iidm:generator id="118_RTPV_4" energySource="SOLAR" minP="0.0" maxP="9.1" ratedS="9.1" voltageRegulatorOn="true" targetP="0.0" targetV="230.0" targetQ="0.0" bus="B-118" connectableBus="B-118" p="-0.0" q="-0.0">
                <iidm:minMaxReactiveLimits minQ="0.0" maxQ="0.0"/>
            </iidm:generator>
            <iidm:generator id="118_RTPV_5" energySource="SOLAR" minP="0.0" maxP="9.1" ratedS="9.1" voltageRegulatorOn="true" targetP="0.0" targetV="230.0" targetQ="0.0" bus="B-118" connectableBus="B-118" p="-0.0" q="-0.0">
                <iidm:minMaxReactiveLimits minQ="0.0" maxQ="0.0"/>
            </iidm:generator>
            <iidm:generator id="118_RTPV_6" energySource="SOLAR" minP="0.0" maxP="9.7" ratedS="9.7" voltageRegulatorOn="true" targetP="0.0" targetV="230.0" targetQ="0.0" bus="B-118" connectableBus="B-118" p="-0.0" q="-0.0">
                <iidm:minMaxReactiveLimits minQ="0.0" maxQ="0.0"/>
            </iidm:generator>
            <iidm:generator id="118_RTPV_7" energySource="SOLAR" minP="0.0" maxP="11.8" ratedS="11.8" voltageRegulatorOn="true" targetP="0.0" targetV="230.0" targetQ="0.0" bus="B-118" connectableBus="B-118" p="-0.0" q="-0.0">
                <iidm:minMaxReactiveLimits minQ="0.0" maxQ="0.0"/>
            </iidm:generator>
            <iidm:generator id="118_RTPV_8" energySource="SOLAR" minP="0.0" maxP="11.2" ratedS="11.2" voltageRegulatorOn="true" targetP="0.0" targetV="230.0" targetQ="0.0" bus="B-118" connectableBus="B-118" p="-0.0" q="-0.0">
                <iidm:minMaxReactiveLimits minQ="0.0" maxQ="0.0"/>
            </iidm:generator>
            <iidm:generator id="118_RTPV_9" energySource="SOLAR" minP="0.0" maxP="10.3" ratedS="10.3" voltageRegulatorOn="true" targetP="0.0" targetV="230.0" targetQ="0.0" bus="B-118" connectableBus="B-118" p="-0.0" q="-0.0">
                <iidm:minMaxReactiveLimits minQ="0.0" maxQ="0.0"/>
            </iidm:generator>
            <iidm:generator id="118_RTPV_10" energySource="SOLAR" minP="0.0" maxP="4.5" ratedS="4.5" voltageRegulatorOn="true" targetP="0.0" targetV="230.0" targetQ="0.0" bus="B-118" connectableBus="B-118" p="-0.0" q="-0.0">
                <iidm:minMaxReactiveLimits minQ="0.0" maxQ="0.0"/>
            </iidm:generator>
            <iidm:load id="L-118" loadType="UNDEFINED" p0="333.0" q0="68.0" bus="B-118" connectableBus="B-118" p="333.0" q="68.0"/>
        </iidm:voltageLevel>
    </iidm:substation>
    <iidm:substation id="S-119">
        <iidm:voltageLevel id="V-119" nominalV="230.0" topologyKind="BUS_BREAKER">
            <iidm:busBreakerTopology>
                <iidm:bus id="B-119" v="239.14406062767014" angle="-5.1932234832703275"/>
            </iidm:busBreakerTopology>
            <iidm:generator id="119_PV_1" energySource="SOLAR" minP="0.0" maxP="66.6" ratedS="66.6" voltageRegulatorOn="true" targetP="0.0" targetV="230.0" targetQ="0.0" bus="B-119" connectableBus="B-119" p="-0.0" q="-0.0">
                <iidm:minMaxReactiveLimits minQ="0.0" maxQ="0.0"/>
            </iidm:generator>
            <iidm:load id="L-119" loadType="UNDEFINED" p0="181.0" q0="37.0" bus="B-119" connectableBus="B-119" p="181.0" q="37.0"/>
        </iidm:voltageLevel>
    </iidm:substation>
    <iidm:substation id="S-120">
        <iidm:voltageLevel id="V-120" nominalV="230.0" topologyKind="BUS_BREAKER">
            <iidm:busBreakerTopology>
                <iidm:bus id="B-120" v="240.0953784218425" angle="-3.7136712285365006"/>
            </iidm:busBreakerTopology>
            <iidm:load id="L-120" loadType="UNDEFINED" p0="128.0" q0="26.0" bus="B-120" connectableBus="B-120" p="128.0" q="26.0"/>
        </iidm:voltageLevel>
    </iidm:substation>
    <iidm:substation id="S-121">
        <iidm:voltageLevel id="V-121" nominalV="230.0" topologyKind="BUS_BREAKER">
            <iidm:busBreakerTopology>
                <iidm:bus id="B-121" v="241.5" angle="0.0"/>
            </iidm:busBreakerTopology>
            <iidm:generator id="121_NUCLEAR_1" energySource="NUCLEAR" minP="396.0" maxP="400.0" ratedS="447.21359549995793" voltageRegulatorOn="true" targetP="400.0" targetV="241.5" targetQ="-21.87" bus="B-121" connectableBus="B-121" p="-399.33977482975115" q="22.04149707736751">
                <iidm:minMaxReactiveLimits minQ="-50.0" maxQ="200.0"/>
            </iidm:generator>
            <iidm:load id="L-121" loadType="UNDEFINED" p0="0.0" q0="0.0" bus="B-121" connectableBus="B-121" p="0.0" q="0.0"/>
        </iidm:voltageLevel>
    </iidm:substation>
    <iidm:substation id="S-122">
        <iidm:voltageLevel id="V-122" nominalV="230.0" topologyKind="BUS_BREAKER">
            <iidm:busBreakerTopology>
                <iidm:bus id="B-122" v="241.5" angle="5.940643870957286"/>
            </iidm:busBreakerTopology>
            <iidm:generator id="122_HYDRO_1" energySource="HYDRO" minP="0.0" maxP="50.0" ratedS="52.49761899362675" voltageRegulatorOn="true" targetP="50.0" targetV="241.5" targetQ="-6.79" bus="B-122" connectableBus="B-122" p="-49.917471853718894" q="5.822187547479772">
                <iidm:minMaxReactiveLimits minQ="-10.0" maxQ="16.0"/>
            </iidm:generator>
            <iidm:generator id="122_HYDRO_2" energySource="HYDRO" minP="0.0" maxP="50.0" ratedS="52.49761899362675" voltageRegulatorOn="true" targetP="50.0" targetV="241.5" targetQ="-6.79" bus="B-122" connectableBus="B-122" p="-49.917471853718894" q="5.822187547479772">
                <iidm:minMaxReactiveLimits minQ="-10.0" maxQ="16.0"/>
            </iidm:generator>
            <iidm:generator id="122_HYDRO_3" energySource="HYDRO" minP="0.0" maxP="50.0" ratedS="52.49761899362675" voltageRegulatorOn="true" targetP="50.0" targetV="241.5" targetQ="-6.79" bus="B-122" connectableBus="B-122" p="-49.917471853718894" q="5.822187547479772">
                <iidm:minMaxReactiveLimits minQ="-10.0" maxQ="16.0"/>
            </iidm:generator>
            <iidm:generator id="122_HYDRO_4" energySource="HYDRO" minP="0.0" maxP="50.0" ratedS="52.49761899362675" voltageRegulatorOn="true" targetP="50.0" targetV="241.5" targetQ="-6.79" bus="B-122" connectableBus="B-122" p="-49.917471853718894" q="5.822187547479772">
                <iidm:minMaxReactiveLimits minQ="-10.0" maxQ="16.0"/>
            </iidm:generator>
            <iidm:generator id="122_HYDRO_5" energySource="HYDRO" minP="0.0" maxP="50.0" ratedS="52.49761899362675" voltageRegulatorOn="true" targetP="50.0" targetV="241.5" targetQ="-6.79" bus="B-122" connectableBus="B-122" p="-49.917471853718894" q="5.822187547479772">
                <iidm:minMaxReactiveLimits minQ="-10.0" maxQ="16.0"/>
            </iidm:generator>
            <iidm:generator id="122_HYDRO_6" energySource="HYDRO" minP="0.0" maxP="50.0" ratedS="52.49761899362675" voltageRegulatorOn="true" targetP="50.0" targetV="241.5" targetQ="-6.79" bus="B-122" connectableBus="B-122" p="-49.917471853718894" q="5.822187547479772">
                <iidm:minMaxReactiveLimits minQ="-10.0" maxQ="16.0"/>
            </iidm:generator>
            <iidm:generator id="122_WIND_1" energySource="WIND" minP="0.0" maxP="713.5" ratedS="747.477150152431" voltageRegulatorOn="true" targetP="0.0" targetV="241.5" targetQ="0.0" bus="B-122" connectableBus="B-122" p="-0.0" q="5.822187547479772">
                <iidm:minMaxReactiveLimits minQ="-222.8" maxQ="222.8"/>
            </iidm:generator>
            <iidm:load id="L-122" loadType="UNDEFINED" p0="0.0" q0="0.0" bus="B-122" connectableBus="B-122" p="0.0" q="0.0"/>
        </iidm:voltageLevel>
    </iidm:substation>
    <iidm:substation id="S-123">
        <iidm:voltageLevel id="V-123" nominalV="230.0" topologyKind="BUS_BREAKER">
            <iidm:busBreakerTopology>
                <iidm:bus id="B-123" v="241.5" angle="-2.181501122454179"/>
            </iidm:busBreakerTopology>
            <iidm:generator id="123_STEAM_2" energySource="THERMAL" minP="62.0" maxP="155.0" ratedS="174.42763542512407" voltageRegulatorOn="true" targetP="155.0" targetV="241.5" targetQ="-5.19" bus="B-123" connectableBus="B-123" p="-154.74416274652856" q="-4.66777252544156">
                <iidm:minMaxReactiveLimits minQ="-50.0" maxQ="80.0"/>
            </iidm:generator>
            <iidm:generator id="123_STEAM_3" energySource="THERMAL" minP="140.0" maxP="350.0" ratedS="380.7886552931954" voltageRegulatorOn="true" targetP="350.0" targetV="241.5" targetQ="28.41" bus="B-123" connectableBus="B-123" p="-349.42230297603226" q="-4.66777252544156">
                <iidm:minMaxReactiveLimits minQ="-25.0" maxQ="150.0"/>
            </iidm:generator>
            <iidm:generator id="123_CT_1" energySource="THERMAL" minP="22.0" maxP="55.0" ratedS="58.18934610390462" voltageRegulatorOn="true" targetP="55.0" targetV="241.5" targetQ="0.62" bus="B-123" connectableBus="B-123" p="-54.909219039090786" q="-4.66777252544156">
                <iidm:minMaxReactiveLimits minQ="-15.0" maxQ="19.0"/>
            </iidm:generator>
            <iidm:generator id="123_CT_4" energySource="THERMAL" minP="22.0" maxP="55.0" ratedS="58.18934610390462" voltageRegulatorOn="true" targetP="55.0" targetV="241.5" targetQ="0.62" bus="B-123" connectableBus="B-123" p="-54.909219039090786" q="-4.66777252544156">
                <iidm:minMaxReactiveLimits minQ="-15.0" maxQ="19.0"/>
            </iidm:generator>
            <iidm:generator id="123_CT_5" energySource="THERMAL" minP="22.0" maxP="55.0" ratedS="58.18934610390462" voltageRegulatorOn="true" targetP="55.0" targetV="241.5" targetQ="0.62" bus="B-123" connectableBus="B-123" p="-54.909219039090786" q="-4.66777252544156">
                <iidm:minMaxReactiveLimits minQ="-15.0" maxQ="19.0"/>
            </iidm:generator>
            <iidm:load id="L-123" loadType="UNDEFINED" p0="0.0" q0="0.0" bus="B-123" connectableBus="B-123" p="0.0" q="0.0"/>
        </iidm:voltageLevel>
    </iidm:substation>
    <iidm:substation id="S-201">
        <iidm:voltageLevel id="V-201" nominalV="138.0" topologyKind="BUS_BREAKER">
            <iidm:busBreakerTopology>
                <iidm:bus id="B-201" v="144.9" angle="-23.097193312182767"/>
            </iidm:busBreakerTopology>
            <iidm:generator id="201_CT_1" energySource="THERMAL" minP="8.0" maxP="20.0" ratedS="22.360679774997898" voltageRegulatorOn="true" targetP="8.0" targetV="144.9" targetQ="5.29" bus="B-201" connectableBus="B-201" p="-8.238832537228372" q="-4.864698770609152">
                <iidm:minMaxReactiveLimits minQ="0.0" maxQ="10.0"/>
            </iidm:generator>
            <iidm:generator id="201_CT_2" energySource="THERMAL" minP="8.0" maxP="20.0" ratedS="22.360679774997898" voltageRegulatorOn="true" targetP="8.0" targetV="144.9" targetQ="5.29" bus="B-201" connectableBus="B-201" p="-8.238832537228372" q="-4.864698770609152">
                <iidm:minMaxReactiveLimits minQ="0.0" maxQ="10.0"/>
            </iidm:generator>
            <iidm:generator id="201_STEAM_3" energySource="THERMAL" minP="30.0" maxP="76.0" ratedS="81.70679286326198" voltageRegulatorOn="true" targetP="76.0" targetV="144.9" targetQ="6.99" bus="B-201" connectableBus="B-201" p="-75.87455721765272" q="-4.864698770609152">
                <iidm:minMaxReactiveLimits minQ="-25.0" maxQ="30.0"/>
            </iidm:generator>
            <iidm:generator id="201_HYDRO_4" energySource="HYDRO" minP="0.0" maxP="50.0" ratedS="52.49761899362675" voltageRegulatorOn="true" targetP="50.0" targetV="144.9" targetQ="4.15" bus="B-201" connectableBus="B-201" p="-49.917471853718894" q="-4.864698770609152">
                <iidm:minMaxReactiveLimits minQ="-10.0" maxQ="16.0"/>
            </iidm:generator>
            <iidm:load id="L-201" loadType="UNDEFINED" p0="108.0" q0="22.0" bus="B-201" connectableBus="B-201" p="108.0" q="22.0"/>
        </iidm:voltageLevel>
    </iidm:substation>
    <iidm:substation id="S-202">
        <iidm:voltageLevel id="V-202" nominalV="138.0" topologyKind="BUS_BREAKER">
            <iidm:busBreakerTopology>
                <iidm:bus id="B-202" v="144.9" angle="-23.13585111452077"/>
            </iidm:busBreakerTopology>
            <iidm:generator id="202_CT_1" energySource="THERMAL" minP="8.0" maxP="20.0" ratedS="22.360679774997898" voltageRegulatorOn="true" targetP="8.0" targetV="144.9" targetQ="5.13" bus="B-202" connectableBus="B-202" p="-8.238832537228372" q="-0.0">
                <iidm:minMaxReactiveLimits minQ="0.0" maxQ="10.0"/>
            </iidm:generator>
            <iidm:generator id="202_CT_2" energySource="THERMAL" minP="8.0" maxP="20.0" ratedS="22.360679774997898" voltageRegulatorOn="true" targetP="8.0" targetV="144.9" targetQ="5.13" bus="B-202" connectableBus="B-202" p="-8.238832537228372" q="-0.0">
                <iidm:minMaxReactiveLimits minQ="0.0" maxQ="10.0"/>
            </iidm:generator>
            <iidm:generator id="202_STEAM_3" energySource="THERMAL" minP="30.0" maxP="76.0" ratedS="81.70679286326198" voltageRegulatorOn="true" targetP="76.0" targetV="144.9" targetQ="2.01" bus="B-202" connectableBus="B-202" p="-75.87455721765272" q="1.3206927104945176">
                <iidm:minMaxReactiveLimits minQ="-25.0" maxQ="30.0"/>
            </iidm:generator>
            <iidm:generator id="202_STEAM_4" energySource="THERMAL" minP="30.0" maxP="76.0" ratedS="81.70679286326198" voltageRegulatorOn="true" targetP="76.0" targetV="144.9" targetQ="2.01" bus="B-202" connectableBus="B-202" p="-75.87455721765272" q="1.3206927104945176">
                <iidm:minMaxReactiveLimits minQ="-25.0" maxQ="30.0"/>
            </iidm:generator>
            <iidm:load id="L-202" loadType="UNDEFINED" p0="97.0" q0="20.0" bus="B-202" connectableBus="B-202" p="97.0" q="20.0"/>
        </iidm:voltageLevel>
    </iidm:substation>
    <iidm:substation id="S-203">
        <iidm:voltageLevel id="V-203" nominalV="138.0" topologyKind="BUS_BREAKER">
            <iidm:busBreakerTopology>
                <iidm:bus id="B-203" v="140.7748575635624" angle="-19.66272334483918"/>
            </iidm:busBreakerTopology>
            <iidm:load id="L-203" loadType="UNDEFINED" p0="180.0" q0="37.0" bus="B-203" connectableBus="B-203" p="180.0" q="37.0"/>
        </iidm:voltageLevel>
        <iidm:voltageLevel id="V-224" nominalV="230.0" topologyKind="BUS_BREAKER">
            <iidm:busBreakerTopology>
                <iidm:bus id="B-224" v="233.86220701516788" angle="-10.92207479303584"/>
            </iidm:busBreakerTopology>
            <iidm:load id="L-224" loadType="UNDEFINED" p0="0.0" q0="0.0" bus="B-224" connectableBus="B-224" p="0.0" q="0.0"/>
        </iidm:voltageLevel>
        <iidm:twoWindingsTransformer id="B7" r="1.058" x="44.436" g="0.0" b="0.0" ratedU1="138.0" ratedU2="230.0" bus1="B-203" connectableBus1="B-203" voltageLevelId1="V-203" bus2="B-224" connectableBus2="B-224" voltageLevelId2="V-224" p1="-184.76457400533886" q1="4.457388166224143" p2="185.44090634776813" q2="23.948570215805248">
            <iidm:ratioTapChanger lowTapPosition="0" tapPosition="0" targetDeadband="2.0" loadTapChangingCapabilities="false" targetV="230.0">
                <iidm:step r="0.0" x="0.0" g="0.0" b="0.0" rho="0.9852216748768474"/>
            </iidm:ratioTapChanger>
        </iidm:twoWindingsTransformer>
    </iidm:substation>
    <iidm:substation id="S-204">
        <iidm:voltageLevel id="V-204" nominalV="138.0" topologyKind="BUS_BREAKER">
            <iidm:busBreakerTopology>
                <iidm:bus id="B-204" v="140.5149525150841" angle="-24.945672923976847"/>
            </iidm:busBreakerTopology>
            <iidm:load id="L-204" loadType="UNDEFINED" p0="74.0" q0="15.0" bus="B-204" connectableBus="B-204" p="74.0" q="15.0"/>
        </iidm:voltageLevel>
    </iidm:substation>
    <iidm:substation id="S-205">
        <iidm:voltageLevel id="V-205" nominalV="138.0" topologyKind="BUS_BREAKER">
            <iidm:busBreakerTopology>
                <iidm:bus id="B-205" v="142.77478790237774" angle="-25.43879525375174"/>
            </iidm:busBreakerTopology>
            <iidm:load id="L-205" loadType="UNDEFINED" p0="71.0" q0="14.0" bus="B-205" connectableBus="B-205" p="71.0" q="14.0"/>
        </iidm:voltageLevel>
    </iidm:substation>
    <iidm:substation id="S-206">
        <iidm:voltageLevel id="V-206" nominalV="138.0" topologyKind="BUS_BREAKER">
            <iidm:busBreakerTopology>
                <iidm:bus id="B-206" v="145.5112074482198" angle="-27.916475646181894"/>
            </iidm:busBreakerTopology>
            <iidm:load id="L-206" loadType="UNDEFINED" p0="136.0" q0="28.0" bus="B-206" connectableBus="B-206" p="136.0" q="28.0"/>
        </iidm:voltageLevel>
    </iidm:substation>
    <iidm:substation id="S-207">
        <iidm:voltageLevel id="V-207" nominalV="138.0" topologyKind="BUS_BREAKER">
            <iidm:busBreakerTopology>
                <iidm:bus id="B-207" v="135.05733142804937" angle="-32.3694466796335"/>
            </iidm:busBreakerTopology>
            <iidm:generator id="207_CT_1" energySource="THERMAL" minP="22.0" maxP="55.0" ratedS="58.18934610390462" voltageRegulatorOn="true" targetP="55.0" targetV="133.8462" targetQ="19.0" bus="B-207" connectableBus="B-207" p="-54.909219039090786" q="15.0">
                <iidm:minMaxReactiveLimits minQ="-15.0" maxQ="19.0"/>
            </iidm:generator>
            <iidm:generator id="207_CT_2" energySource="THERMAL" minP="22.0" maxP="55.0" ratedS="58.18934610390462" voltageRegulatorOn="true" targetP="55.0" targetV="133.8462" targetQ="19.0" bus="B-207" connectableBus="B-207" p="-54.909219039090786" q="15.0">
                <iidm:minMaxReactiveLimits minQ="-15.0" maxQ="19.0"/>
            </iidm:generator>
            <iidm:load id="L-207" loadType="UNDEFINED" p0="125.0" q0="25.0" bus="B-207" connectableBus="B-207" p="125.0" q="25.0"/>
        </iidm:voltageLevel>
    </iidm:substation>
    <iidm:substation id="S-208">
        <iidm:voltageLevel id="V-208" nominalV="138.0" topologyKind="BUS_BREAKER">
            <iidm:busBreakerTopology>
                <iidm:bus id="B-208" v="137.52395809256478" angle="-32.34826122200632"/>
            </iidm:busBreakerTopology>
            <iidm:generator id="208_SYNC_COND_1" energySource="OTHER" minP="0.0" maxP="0.0" ratedS="100.0" voltageRegulatorOn="true" targetP="0.0" targetV="144.9" targetQ="125.28" bus="B-208" connectableBus="B-208" p="-0.0" q="-100.0">
                <iidm:minMaxReactiveLimits minQ="-25.0" maxQ="100.0"/>
            </iidm:generator>
            <iidm:load id="L-208" loadType="UNDEFINED" p0="171.0" q0="35.0" bus="B-208" connectableBus="B-208" p="171.0" q="35.0"/>
        </iidm:voltageLevel>
    </iidm:substation>
    <iidm:substation id="S-209">
        <iidm:voltageLevel id="V-209" nominalV="138.0" topologyKind="BUS_BREAKER">
            <iidm:busBreakerTopology>
                <iidm:bus id="B-209" v="141.49152178232413" angle="-22.413525324152324"/>
            </iidm:busBreakerTopology>
            <iidm:load id="L-209" loadType="UNDEFINED" p0="175.0" q0="36.0" bus="B-209" connectableBus="B-209" p="175.0" q="36.0"/>
        </iidm:voltageLevel>
        <iidm:voltageLevel id="V-210" nominalV="138.0" topologyKind="BUS_BREAKER">
            <iidm:busBreakerTopology>
                <iidm:bus id="B-210" v="144.2220911452011" angle="-24.702406030171954"/>
            </iidm:busBreakerTopology>
            <iidm:load id="L-210" loadType="UNDEFINED" p0="195.0" q0="40.0" bus="B-210" connectableBus="B-210" p="195.0" q="40.0"/>
        </iidm:voltageLevel>
        <iidm:voltageLevel id="V-211" nominalV="230.0" topologyKind="BUS_BREAKER">
            <iidm:busBreakerTopology>
                <iidm:bus id="B-211" v="236.24997331973094" angle="-16.52802258660581"/>
            </iidm:busBreakerTopology>
            <iidm:load id="L-211" loadType="UNDEFINED" p0="0.0" q0="0.0" bus="B-211" connectableBus="B-211" p="0.0" q="0.0"/>
        </iidm:voltageLevel>
        <iidm:voltageLevel id="V-212" nominalV="230.0" topologyKind="BUS_BREAKER">
            <iidm:busBreakerTopology>
                <iidm:bus id="B-212" v="234.45706504273164" angle="-14.74617005625937"/>
            </iidm:busBreakerTopology>
            <iidm:load id="L-212" loadType="UNDEFINED" p0="0.0" q0="0.0" bus="B-212" connectableBus="B-212" p="0.0" q="0.0"/>
        </iidm:voltageLevel>
        <iidm:twoWindingsTransformer id="B14" r="1.058" x="44.436" g="0.0" b="0.0" ratedU1="138.0" ratedU2="230.0" bus1="B-209" connectableBus1="B-209" voltageLevelId1="V-209" bus2="B-211" connectableBus2="B-211" voltageLevelId2="V-211" p1="-125.48908649246451" q1="-28.204446761509335" p2="125.82298624384396" q2="42.22823631944904">
            <iidm:ratioTapChanger lowTapPosition="0" tapPosition="0" targetDeadband="2.0" loadTapChangingCapabilities="false" targetV="230.0">
                <iidm:step r="0.0" x="0.0" g="0.0" b="0.0" rho="0.970873786407767"/>
            </iidm:ratioTapChanger>
        </iidm:twoWindingsTransformer>
        <iidm:twoWindingsTransformer id="B15" r="1.058" x="44.436" g="0.0" b="0.0" ratedU1="138.0" ratedU2="230.0" bus1="B-209" connectableBus1="B-209" voltageLevelId1="V-209" bus2="B-212" connectableBus2="B-212" voltageLevelId2="V-212" p1="-161.50126892977735" q1="-13.725293517396755" p2="162.0315170127416" q2="35.99571300189771">
            <iidm:ratioTapChanger lowTapPosition="0" tapPosition="0" targetDeadband="2.0" loadTapChangingCapabilities="false" targetV="230.0">
                <iidm:step r="0.0" x="0.0" g="0.0" b="0.0" rho="0.970873786407767"/>
            </iidm:ratioTapChanger>
        </iidm:twoWindingsTransformer>
        <iidm:twoWindingsTransformer id="B16" r="1.058" x="44.436" g="0.0" b="0.0" ratedU1="138.0" ratedU2="230.0" bus1="B-210" connectableBus1="B-210" voltageLevelId1="V-210" bus2="B-211" connectableBus2="B-211" voltageLevelId2="V-211" p1="-178.54535861220845" q1="20.07002849888417" p2="179.15434422791898" q2="5.507367360962026">
            <iidm:ratioTapChanger lowTapPosition="0" tapPosition="0" targetDeadband="2.0" loadTapChangingCapabilities="false" targetV="230.0">
                <iidm:step r="0.0" x="0.0" g="0.0" b="0.0" rho="0.9852216748768474"/>
            </iidm:ratioTapChanger>
        </iidm:twoWindingsTransformer>
        <iidm:twoWindingsTransformer id="B17" r="1.058" x="44.436" g="0.0" b="0.0" ratedU1="138.0" ratedU2="230.0" bus1="B-210" connectableBus1="B-210" voltageLevelId1="V-210" bus2="B-212" connectableBus2="B-212" voltageLevelId2="V-212" p1="-215.16713516551653" q1="36.52243669274435" p2="216.06568963833422" q2="1.2168511655987722">
            <iidm:ratioTapChanger lowTapPosition="0" tapPosition="0" targetDeadband="2.0" loadTapChangingCapabilities="false" targetV="230.0">
                <iidm:step r="0.0" x="0.0" g="0.0" b="0.0" rho="0.9852216748768474"/>
            </iidm:ratioTapChanger>
        </iidm:twoWindingsTransformer>
    </iidm:substation>
    <iidm:substation id="S-213">
        <iidm:voltageLevel id="V-213" nominalV="230.0" topologyKind="BUS_BREAKER">
            <iidm:busBreakerTopology>
                <iidm:bus id="B-213" v="241.5" angle="-10.970952711418956"/>
            </iidm:busBreakerTopology>
            <iidm:generator id="213_CC_3" energySource="THERMAL" minP="170.0" maxP="355.0" ratedS="385.3894134508627" voltageRegulatorOn="true" targetP="355.0" targetV="241.5" targetQ="135.8" bus="B-213" connectableBus="B-213" p="-354.4140501614041" q="-115.49781499076637">
                <iidm:minMaxReactiveLimits minQ="-25.0" maxQ="150.0"/>
            </iidm:generator>
            <iidm:generator id="213_CT_1" energySource="THERMAL" minP="22.0" maxP="55.0" ratedS="58.18934610390462" voltageRegulatorOn="true" targetP="55.0" targetV="241.5" targetQ="9.23" bus="B-213" connectableBus="B-213" p="-54.909219039090786" q="-19.0">
                <iidm:minMaxReactiveLimits minQ="-15.0" maxQ="19.0"/>
            </iidm:generator>
            <iidm:generator id="213_CT_2" energySource="THERMAL" minP="22.0" maxP="55.0" ratedS="58.18934610390462" voltageRegulatorOn="true" targetP="55.0" targetV="241.5" targetQ="9.23" bus="B-213" connectableBus="B-213" p="-54.909219039090786" q="-19.0">
                <iidm:minMaxReactiveLimits minQ="-15.0" maxQ="19.0"/>
            </iidm:generator>
            <iidm:generator id="213_RTPV_1" energySource="SOLAR" minP="0.0" maxP="13.2" ratedS="13.2" voltageRegulatorOn="true" targetP="0.0" targetV="230.0" targetQ="0.0" bus="B-213" connectableBus="B-213" p="-0.0" q="-0.0">
                <iidm:minMaxReactiveLimits minQ="0.0" maxQ="0.0"/>
            </iidm:generator>
            <iidm:load id="L-213" loadType="UNDEFINED" p0="265.0" q0="54.0" bus="B-213" connectableBus="B-213" p="265.0" q="54.0"/>
        </iidm:voltageLevel>
    </iidm:substation>
    <iidm:substation id="S-214">
        <iidm:voltageLevel id="V-214" nominalV="230.0" topologyKind="BUS_BREAKER">
            <iidm:busBreakerTopology>
                <iidm:bus id="B-214" v="239.86937683335867" angle="-14.667194431071678"/>
            </iidm:busBreakerTopology>
            <iidm:generator id="214_SYNC_COND_1" energySource="OTHER" minP="0.0" maxP="0.0" ratedS="100.0" voltageRegulatorOn="true" targetP="0.0" targetV="241.5" targetQ="125.28" bus="B-214" connectableBus="B-214" p="-0.0" q="-100.0">
                <iidm:minMaxReactiveLimits minQ="-25.0" maxQ="100.0"/>
            </iidm:generator>
            <iidm:load id="L-214" loadType="UNDEFINED" p0="194.0" q0="39.0" bus="B-214" connectableBus="B-214" p="194.0" q="39.0"/>
        </iidm:voltageLevel>
    </iidm:substation>
    <iidm:substation id="S-215">
        <iidm:voltageLevel id="V-215" nominalV="230.0" topologyKind="BUS_BREAKER">
            <iidm:busBreakerTopology>
                <iidm:bus id="B-215" v="239.9199808426182" angle="-5.775331211753681"/>
            </iidm:busBreakerTopology>
            <iidm:generator id="215_CT_4" energySource="THERMAL" minP="22.0" maxP="55.0" ratedS="58.18934610390462" voltageRegulatorOn="true" targetP="55.0" targetV="240.05100000000002" targetQ="19.0" bus="B-215" connectableBus="B-215" p="-54.909219039090786" q="-18.999999999999993">
                <iidm:minMaxReactiveLimits minQ="-15.0" maxQ="19.0"/>
            </iidm:generator>
            <iidm:generator id="215_CT_5" energySource="THERMAL" minP="22.0" maxP="55.0" ratedS="58.18934610390462" voltageRegulatorOn="true" targetP="55.0" targetV="240.05100000000002" targetQ="19.0" bus="B-215" connectableBus="B-215" p="-54.909219039090786" q="-18.999999999999993">
                <iidm:minMaxReactiveLimits minQ="-15.0" maxQ="19.0"/>
            </iidm:generator>
            <iidm:generator id="215_HYDRO_1" energySource="HYDRO" minP="0.0" maxP="50.0" ratedS="52.49761899362675" voltageRegulatorOn="true" targetP="50.0" targetV="240.05100000000002" targetQ="16.0" bus="B-215" connectableBus="B-215" p="-49.917471853718894" q="-16.0">
                <iidm:minMaxReactiveLimits minQ="-10.0" maxQ="16.0"/>
            </iidm:generator>
            <iidm:generator id="215_HYDRO_2" energySource="HYDRO" minP="0.0" maxP="50.0" ratedS="52.49761899362675" voltageRegulatorOn="true" targetP="50.0" targetV="240.05100000000002" targetQ="16.0" bus="B-215" connectableBus="B-215" p="-49.917471853718894" q="-16.0">
                <iidm:minMaxReactiveLimits minQ="-10.0" maxQ="16.0"/>
            </iidm:generator>
            <iidm:generator id="215_HYDRO_3" energySource="HYDRO" minP="0.0" maxP="50.0" ratedS="52.49761899362675" voltageRegulatorOn="true" targetP="50.0" targetV="240.05100000000002" targetQ="16.0" bus="B-215" connectableBus="B-215" p="-49.917471853718894" q="-16.0">
                <iidm:minMaxReactiveLimits minQ="-10.0" maxQ="16.0"/>
            </iidm:generator>
            <iidm:generator id="215_PV_1" energySource="SOLAR" minP="0.0" maxP="125.1" ratedS="125.1" voltageRegulatorOn="true" targetP="0.0" targetV="230.0" targetQ="0.0" bus="B-215" connectableBus="B-215" p="-0.0" q="-0.0">
                <iidm:minMaxReactiveLimits minQ="0.0" maxQ="0.0"/>
            </iidm:generator>
            <iidm:load id="L-215" loadType="UNDEFINED" p0="317.0" q0="64.0" bus="B-215" connectableBus="B-215" p="317.0" q="64.0"/>
        </iidm:voltageLevel>
    </iidm:substation>
    <iidm:substation id="S-216">
        <iidm:voltageLevel id="V-216" nominalV="230.0" topologyKind="BUS_BREAKER">
            <iidm:busBreakerTopology>
                <iidm:bus id="B-216" v="240.59316879226182" angle="-5.8380447782872125"/>
            </iidm:busBreakerTopology>
            <iidm:generator id="216_STEAM_1" energySource="THERMAL" minP="62.0" maxP="155.0" ratedS="174.42763542512407" voltageRegulatorOn="true" targetP="155.0" targetV="240.87899999999996" targetQ="80.0" bus="B-216" connectableBus="B-216" p="-154.74416274652856" q="-80.0">
                <iidm:minMaxReactiveLimits minQ="-50.0" maxQ="80.0"/>
            </iidm:generator>
            <iidm:load id="L-216" loadType="UNDEFINED" p0="100.0" q0="20.0" bus="B-216" connectableBus="B-216" p="100.0" q="20.0"/>
        </iidm:voltageLevel>
    </iidm:substation>
    <iidm:substation id="S-217">
        <iidm:voltageLevel id="V-217" nominalV="230.0" topologyKind="BUS_BREAKER">
            <iidm:busBreakerTopology>
                <iidm:bus id="B-217" v="241.28386888187313" angle="-2.4281018195022126"/>
            </iidm:busBreakerTopology>
            <iidm:load id="L-217" loadType="UNDEFINED" p0="0.0" q0="0.0" bus="B-217" connectableBus="B-217" p="0.0" q="0.0"/>
        </iidm:voltageLevel>
    </iidm:substation>
    <iidm:substation id="S-218">
        <iidm:voltageLevel id="V-218" nominalV="230.0" topologyKind="BUS_BREAKER">
            <iidm:busBreakerTopology>
                <iidm:bus id="B-218" v="241.5" angle="-1.6015688527179055"/>
            </iidm:busBreakerTopology>
            <iidm:generator id="218_CC_1" energySource="THERMAL" minP="170.0" maxP="355.0" ratedS="385.3894134508627" voltageRegulatorOn="true" targetP="355.0" targetV="241.5" targetQ="60.3" bus="B-218" connectableBus="B-218" p="-354.4140501614041" q="-63.09311586858871">
                <iidm:minMaxReactiveLimits minQ="-25.0" maxQ="150.0"/>
            </iidm:generator>
            <iidm:load id="L-218" loadType="UNDEFINED" p0="333.0" q0="68.0" bus="B-218" connectableBus="B-218" p="333.0" q="68.0"/>
        </iidm:voltageLevel>
    </iidm:substation>
    <iidm:substation id="S-219">
        <iidm:voltageLevel id="V-219" nominalV="230.0" topologyKind="BUS_BREAKER">
            <iidm:busBreakerTopology>
                <iidm:bus id="B-219" v="239.1181575638728" angle="-6.084635083091634"/>
            </iidm:busBreakerTopology>
            <iidm:load id="L-219" loadType="UNDEFINED" p0="181.0" q0="37.0" bus="B-219" connectableBus="B-219" p="181.0" q="37.0"/>
        </iidm:voltageLevel>
    </iidm:substation>
    <iidm:substation id="S-220">
        <iidm:voltageLevel id="V-220" nominalV="230.0" topologyKind="BUS_BREAKER">
            <iidm:busBreakerTopology>
                <iidm:bus id="B-220" v="240.06817815564855" angle="-4.4229354754089645"/>
            </iidm:busBreakerTopology>
            <iidm:load id="L-220" loadType="UNDEFINED" p0="128.0" q0="26.0" bus="B-220" connectableBus="B-220" p="128.0" q="26.0"/>
        </iidm:voltageLevel>
    </iidm:substation>
    <iidm:substation id="S-221">
        <iidm:voltageLevel id="V-221" nominalV="230.0" topologyKind="BUS_BREAKER">
            <iidm:busBreakerTopology>
                <iidm:bus id="B-221" v="241.5" angle="-0.9787752397437126"/>
            </iidm:busBreakerTopology>
            <iidm:generator id="221_CC_1" energySource="THERMAL" minP="170.0" maxP="355.0" ratedS="385.3894134508627" voltageRegulatorOn="true" targetP="296.97" targetV="241.5" targetQ="-7.52" bus="B-221" connectableBus="B-221" p="-301.20927753580366" q="5.5855260498670845">
                <iidm:minMaxReactiveLimits minQ="-25.0" maxQ="150.0"/>
            </iidm:generator>
            <iidm:load id="L-221" loadType="UNDEFINED" p0="0.0" q0="0.0" bus="B-221" connectableBus="B-221" p="0.0" q="0.0"/>
        </iidm:voltageLevel>
    </iidm:substation>
    <iidm:substation id="S-222">
        <iidm:voltageLevel id="V-222" nominalV="230.0" topologyKind="BUS_BREAKER">
            <iidm:busBreakerTopology>
                <iidm:bus id="B-222" v="241.5" angle="4.953581177193118"/>
            </iidm:busBreakerTopology>
            <iidm:generator id="222_HYDRO_1" energySource="HYDRO" minP="0.0" maxP="50.0" ratedS="52.49761899362675" voltageRegulatorOn="true" targetP="50.0" targetV="241.5" targetQ="-6.97" bus="B-222" connectableBus="B-222" p="-49.917471853718894" q="6.910825974980785">
                <iidm:minMaxReactiveLimits minQ="-10.0" maxQ="16.0"/>
            </iidm:generator>
            <iidm:generator id="222_HYDRO_2" energySource="HYDRO" minP="0.0" maxP="50.0" ratedS="52.49761899362675" voltageRegulatorOn="true" targetP="50.0" targetV="241.5" targetQ="-6.97" bus="B-222" connectableBus="B-222" p="-49.917471853718894" q="6.910825974980785">
                <iidm:minMaxReactiveLimits minQ="-10.0" maxQ="16.0"/>
            </iidm:generator>
            <iidm:generator id="222_HYDRO_3" energySource="HYDRO" minP="0.0" maxP="50.0" ratedS="52.49761899362675" voltageRegulatorOn="true" targetP="50.0" targetV="241.5" targetQ="-6.97" bus="B-222" connectableBus="B-222" p="-49.917471853718894" q="6.910825974980785">
                <iidm:minMaxReactiveLimits minQ="-10.0" maxQ="16.0"/>
            </iidm:generator>
            <iidm:generator id="222_HYDRO_4" energySource="HYDRO" minP="0.0" maxP="50.0" ratedS="52.49761899362675" voltageRegulatorOn="true" targetP="50.0" targetV="241.5" targetQ="-6.97" bus="B-222" connectableBus="B-222" p="-49.917471853718894" q="6.910825974980785">
                <iidm:minMaxReactiveLimits minQ="-10.0" maxQ="16.0"/>
            </iidm:generator>
            <iidm:generator id="222_HYDRO_5" energySource="HYDRO" minP="0.0" maxP="50.0" ratedS="52.49761899362675" voltageRegulatorOn="true" targetP="50.0" targetV="241.5" targetQ="-6.97" bus="B-222" connectableBus="B-222" p="-49.917471853718894" q="6.910825974980785">
                <iidm:minMaxReactiveLimits minQ="-10.0" maxQ="16.0"/>
            </iidm:generator>
            <iidm:generator id="222_HYDRO_6" energySource="HYDRO" minP="0.0" maxP="50.0" ratedS="52.49761899362675" voltageRegulatorOn="true" targetP="50.0" targetV="241.5" targetQ="-6.97" bus="B-222" connectableBus="B-222" p="-49.917471853718894" q="6.910825974980785">
                <iidm:minMaxReactiveLimits minQ="-10.0" maxQ="16.0"/>
            </iidm:generator>
            <iidm:load id="L-222" loadType="UNDEFINED" p0="0.0" q0="0.0" bus="B-222" connectableBus="B-222" p="0.0" q="0.0"/>
        </iidm:voltageLevel>
    </iidm:substation>
    <iidm:substation id="S-223">
        <iidm:voltageLevel id="V-223" nominalV="230.0" topologyKind="BUS_BREAKER">
            <iidm:busBreakerTopology>
                <iidm:bus id="B-223" v="241.5" angle="-2.7914700426296837"/>
            </iidm:busBreakerTopology>
            <iidm:generator id="223_STEAM_1" energySource="THERMAL" minP="62.0" maxP="155.0" ratedS="174.42763542512407" voltageRegulatorOn="true" targetP="155.0" targetV="241.5" targetQ="-10.31" bus="B-223" connectableBus="B-223" p="-154.74416274652856" q="-0.24039586794593015">
                <iidm:minMaxReactiveLimits minQ="-50.0" maxQ="80.0"/>
            </iidm:generator>
            <iidm:generator id="223_STEAM_2" energySource="THERMAL" minP="62.0" maxP="155.0" ratedS="174.42763542512407" voltageRegulatorOn="true" targetP="155.0" targetV="241.5" targetQ="-10.31" bus="B-223" connectableBus="B-223" p="-154.74416274652856" q="-0.24039586794593015">
                <iidm:minMaxReactiveLimits minQ="-50.0" maxQ="80.0"/>
            </iidm:generator>
            <iidm:generator id="223_STEAM_3" energySource="THERMAL" minP="140.0" maxP="350.0" ratedS="380.7886552931954" voltageRegulatorOn="true" targetP="350.0" targetV="241.5" targetQ="20.59" bus="B-223" connectableBus="B-223" p="-349.42230297603226" q="-0.24039586794593015">
                <iidm:minMaxReactiveLimits minQ="-25.0" maxQ="150.0"/>
            </iidm:generator>
            <iidm:generator id="223_CT_4" energySource="THERMAL" minP="22.0" maxP="55.0" ratedS="58.18934610390462" voltageRegulatorOn="true" targetP="22.0" targetV="241.5" targetQ="0.24" bus="B-223" connectableBus="B-223" p="-22.656789477378027" q="-0.24039586794593015">
                <iidm:minMaxReactiveLimits minQ="-15.0" maxQ="19.0"/>
            </iidm:generator>
            <iidm:generator id="223_CT_5" energySource="THERMAL" minP="22.0" maxP="55.0" ratedS="58.18934610390462" voltageRegulatorOn="true" targetP="22.0" targetV="241.5" targetQ="0.24" bus="B-223" connectableBus="B-223" p="-22.656789477378027" q="-0.24039586794593015">
                <iidm:minMaxReactiveLimits minQ="-15.0" maxQ="19.0"/>
            </iidm:generator>
...